gem5 Simulator System.  http://gem5.org
gem5 is copyrighted software; use the --copyright option for details.

gem5 compiled May 30 2017 02:27:43
gem5 started Jul 26 2017 23:41:43
gem5 executing on krishna-srv1.ece.gatech.edu, pid 172815
command line: /nethome/aramrakhyani3/spin/gem5/build/Garnet_standalone/gem5.debug -d '.$sim_path.' /nethome/aramrakhyani3/spin/gem5/configs/example/garnet_synth_t raffic.py --network=garnet2.0 --num-cpus=64 --num-dirs=1 --topology=Mesh --mesh- rows=8 --sim-cycles=20000 '--injectionrate=.$ir.' '--synthetic=.$traffic_pattern
.' --enable-spin-scheme=1 --dd-thresh=128 --routing-algorithm=ugal --max-turn-ca pacity=40 --enable-variable-dd=0 --vcs-per-vnet=3 --enable-rotating-priority=1 ./my_scripts/set_env.cshrc

Script /nethome/aramrakhyani3/spin/gem5/configs/example/garnet_synth_t not found
Usage
=====
  gem5.debug [gem5 options] script.py [script options]

gem5 is copyrighted software; use the --copyright option for details.

Options
=======
--version               show program's version number and exit
--help, -h              show this help message and exit
--build-info, -B        Show build information
--copyright, -C         Show full copyright information
--readme, -R            Show the readme
--outdir=DIR, -d DIR    Set the output directory to DIR [Default: m5out]
--redirect-stdout, -r   Redirect stdout (& stderr, without -e) to file
--redirect-stderr, -e   Redirect stderr to file
--stdout-file=FILE      Filename for -r redirection [Default: simout]
--stderr-file=FILE      Filename for -e redirection [Default: simerr]
--interactive, -i       Invoke the interactive interpreter after running the
                        script
--pdb                   Invoke the python debugger before running the script
--path=PATH[:PATH], -p PATH[:PATH]
                        Prepend PATH to the system path when invoking the
                        script
--quiet, -q             Reduce verbosity
--verbose, -v           Increase verbosity

Statistics Options
------------------
--stats-file=FILE       Sets the output file for statistics [Default:
                        stats.txt]

Configuration Options
---------------------
--dump-config=FILE      Dump configuration output file [Default: config.ini]
--json-config=FILE      Create JSON output of the configuration [Default:
                        config.json]
--dot-config=FILE       Create DOT & pdf outputs of the configuration
                        [Default: config.dot]
--dot-dvfs-config=FILE  Create DOT & pdf outputs of the DVFS configuration
                        [Default: none]

Debugging Options
-----------------
--debug-break=TICK[,TICK]
                        Create breakpoint(s) at TICK(s) (kills process if no
                        debugger attached)
--debug-help            Print help on debug flags
--debug-flags=FLAG[,FLAG]
                        Sets the flags for debug output (-FLAG disables a
                        flag)
--debug-start=TICK      Start debug output at TICK
--debug-end=TICK        End debug output at TICK
--debug-file=FILE       Sets the output file for debug [Default: cout]
--debug-ignore=EXPR     Ignore EXPR sim objects
--remote-gdb-port=REMOTE_GDB_PORT
                        Remote gdb base port (set to 0 to disable listening)

Help Options
------------
--list-sim-objects      List all built-in SimObjects, their params and default
                        values
